LAMMPS (29 Oct 2020)
# AA model for water

units           real
atom_style      full
read_data       data.singleTIP4P05
Reading data file ...
  orthogonal box = (0.0000000 0.0000000 0.0000000) to (3.5000000 3.5000000 3.5000000)
  reading atoms ...
  3 atoms
  scanning bonds ...
  scanning angles ...
  reading bonds ...
  2 bonds
  reading angles ...
  1 angles
Finding 1-2 1-3 1-4 neighbors ...
     2 = max # of 1-2 neighbors
     1 = max # of 1-3 neighbors
     1 = max # of 1-4 neighbors
     2 = max # of special neighbors

mass           1 1.00794 # H
mass           2 15.9994 # O

pair_style lj/cut/tip4p/long 2 1 1 1 0.1546 12.0

pair_coeff 1 1 0.0 0.0   # Hw Hw
pair_coeff 1 2 0.0 0.0	 # Hw Ow
pair_coeff 2 2 0.18520 3.1589  # Ow-Ow

bond_style harmonic
bond_coeff 1 0.0 0.9572

angle_style harmonic
angle_coeff 1 0.0 104.52

pair_modify tail yes
#kspace_style pppm 1.0e-5
kspace_style	pppm/tip4p 1.0e-5
kspace_modify   order 5

replicate 8 8 8
Replicating atoms ...
  orthogonal box = (0.0000000 0.0000000 0.0000000) to (28.000000 28.000000 28.000000)
  1536 atoms
  1024 bonds
  512 angles
Finding 1-2 1-3 1-4 neighbors ...
     2 = max # of 1-2 neighbors
     1 = max # of 1-3 neighbors
     1 = max # of 1-4 neighbors
     2 = max # of special neighbors
  replicate CPU = 0.003 seconds

variable        Text equal 270

group           oxygen type 2
512 atoms in group oxygen
group           hydrogen type 1
1024 atoms in group hydrogen

velocity        all create 270 1234

neighbor        2.0 bin
neigh_modify    every 1 delay 0 check yes

timestep        1.0

variable   nH equal count(hydrogen)
variable   nO equal count(oxygen)
variable   mH2O equal (2*1.00794+15.9994) # H2O
variable   denwat equal (v_nO*v_mH2O*10)/(vol*6.023)
#fix loadBalance all balance 20 z 5 1.05
#fix   20 all balance 10000 0.9 shift xyz 20 1.1 out tmp.balance

compute h2oRDF all rdf 100 1 1 1 2 2 2 cutoff 10.0
fix    avgrdf all ave/time 100 100 10000 c_h2oRDF[*] file tmprdf.dat mode vector

compute onlyOw oxygen chunk/atom molecule
compute h2oMSD oxygen msd #msd/chunk #onlyOw #com yes average yes
fix     noavgmsd all ave/time 1000 1 1000 c_h2oMSD[*] file tmpmsd.dat #mode vector

fix         constrain all shake 1.0e-4 100 0 b 1 a 1
       0 = # of size 2 clusters
       0 = # of size 3 clusters
       0 = # of size 4 clusters
     512 = # of frozen angles
  find clusters CPU = 0.000 seconds
fix         integrate all npt temp 270 270 10.0 iso 1.0 1.0 110

#variable        zPress equal c_thermo_press[3]
# Evaluate and average surface tension in mN/m:
#variable        xyArea equal lx*ly

thermo_style    custom step temp press vol density v_denwat
thermo_modify   flush yes
thermo          5000

dump           1 all custom 1000 dump.lammpstrj id type xs ys zs
dump_modify    1 sort id
restart        500000 x.rest
run 2000000
PPPM initialization ...
  extracting TIP4P info from pair style
  G vector (1/distance) = 0.26425212
  grid = 24 24 24
  stencil order = 5
  estimated absolute RMS force accuracy = 0.0019073645
  estimated relative force accuracy = 5.7439716e-06
  3d grid and FFT values/proc = 29791 13824
  update every 1 steps, delay 0 steps, check yes
Step Temp Press Volume Density v_denwat
0    405.13196    3846.3302        21952   0.69772766   0.69762819
Averages over the last 201 of 401 rows, steps 1000000 to 2000000:
Temp Press Volume Density v_denwat
270.4 39.3526 15306.9 1.00074 1.0006
Loop time of 92475.2 on 1 procs for 2000000 steps with 1536 atoms
